LTspice 24.0.12 for Windows
Circuit: * C:\Users\Ben\Downloads\Y2 stuff\EE2027\Lab\2027 Lab 2.asc
Start Time: Wed Nov 13 14:02:52 2024
solver = Normal
Maximum thread count: 20
tnom = 27
temp = 27
method = modified trap
.OP point found by inspection.
Total elapsed time: 0.085 seconds.

